<routes>
        <vType id="car" vClass="passenger" length="3" accel="1.0" decel="4.5" sigma="0.5" maxSpeed="20"/>
        
        <!-- straight routes -->
        <route id="N1S1" edges="NTL_1 TLS_1"/>
        <route id="N2S2" edges="NTL_2 TLS_2"/>
        <route id="S1N1" edges="STL_1 TLN_1"/>
        <route id="S2N2" edges="STL_2 TLN_2"/>
        <route id="WE" edges="WTL_1 TL_12 TLE_2"/>
        <route id="EW" edges="ETL_2 TL_21 TLW_1"/>
    
        <!-- turn routes -->
        <route id="ES1" edges="ETL_2 TL_21 TLS_1"/>
        <route id="S1E" edges="STL_1 TL_12 TLE_2"/>
        <route id="ES2" edges="ETL_2 TLS_2"/>
        <route id="S2E" edges="STL_2 TLE_2"/>
        <route id="EN1" edges="ETL_2 TL_21 TLN_1"/>
        <route id="N1E" edges="NTL_1 TL_12 TLE_2"/>
        <route id="EN2" edges="ETL_2 TLN_2"/>
        <route id="N2E" edges="NTL_2 TLE_2"/>
    
        <route id="WS1" edges="WTL_1 TLS_1"/>
        <route id="S1W" edges="STL_1 TLW_1"/>
        <route id="WS2" edges="WTL_1 TL_12 TLS_2"/>
        <route id="S2W" edges="STL_2 TL_21 TLW_1"/>
        <route id="WN1" edges="WTL_1 TLN_1"/>
        <route id="N1W" edges="NTL_1 TLW_1"/>
        <route id="WN2" edges="WTL_1 TL_12 TLN_2"/>
        <route id="N2W" edges="NTL_2 TL_21 TLW_1"/>
    
        <route id="N1S2" edges="NTL_1 TL_12 TLS_2"/>
        <route id="S2N1" edges="STL_2 TL_21 TLN_1"/>
        <route id="N2S1" edges="NTL_2 TL_21 TLS_1"/>
        <route id="S1N2" edges="STL_1 TL_12 TLN_2"/>
        <route id="S1S2" edges="STL_1 TL_12 TLS_2"/>
        <route id="S2S1" edges="STL_2 TL_21 TLS_1"/>
        <route id="N1N2" edges="NTL_1 TL_12 TLN_2"/>
        <route id="N2N1" edges="NTL_2 TL_21 TLN_1"/>
        
    <vehicle id="S2N2_0" type="car" route="S2N2" depart="61.0" departLane="random" departSpeed="10" />
    <vehicle id="N2S2_1" type="car" route="N2S2" depart="73.0" departLane="random" departSpeed="10" />
    <vehicle id="S1N2_2" type="car" route="S1N2" depart="114.0" departLane="random" departSpeed="10" />
    <vehicle id="S2W_3" type="car" route="S2W" depart="114.0" departLane="random" departSpeed="10" />
    <vehicle id="N2N1_4" type="car" route="N2N1" depart="123.0" departLane="random" departSpeed="10" />
    <vehicle id="N1S1_5" type="car" route="N1S1" depart="132.0" departLane="random" departSpeed="10" />
    <vehicle id="N2S2_6" type="car" route="N2S2" depart="134.0" departLane="random" departSpeed="10" />
    <vehicle id="WE7" type="car" route="WE" depart="135.0" departLane="random" departSpeed="10" />
    <vehicle id="S1N1_8" type="car" route="S1N1" depart="171.0" departLane="random" departSpeed="10" />
    <vehicle id="EN2_9" type="car" route="EN2" depart="172.0" departLane="random" departSpeed="10" />
    <vehicle id="S2W_10" type="car" route="S2W" depart="174.0" departLane="random" departSpeed="10" />
    <vehicle id="N1S1_11" type="car" route="N1S1" depart="175.0" departLane="random" departSpeed="10" />
    <vehicle id="S2N2_12" type="car" route="S2N2" depart="175.0" departLane="random" departSpeed="10" />
    <vehicle id="WS1_13" type="car" route="WS1" depart="187.0" departLane="random" departSpeed="10" />
    <vehicle id="S1N1_14" type="car" route="S1N1" depart="196.0" departLane="random" departSpeed="10" />
    <vehicle id="N2N1_15" type="car" route="N2N1" depart="196.0" departLane="random" departSpeed="10" />
    <vehicle id="S1N2_16" type="car" route="S1N2" depart="206.0" departLane="random" departSpeed="10" />
    <vehicle id="S2N2_17" type="car" route="S2N2" depart="225.0" departLane="random" departSpeed="10" />
    <vehicle id="N1S2_18" type="car" route="N1S2" depart="225.0" departLane="random" departSpeed="10" />
    <vehicle id="N2S2_19" type="car" route="N2S2" depart="229.0" departLane="random" departSpeed="10" />
    <vehicle id="N1S1_20" type="car" route="N1S1" depart="231.0" departLane="random" departSpeed="10" />
    <vehicle id="ES2_21" type="car" route="ES2" depart="247.0" departLane="random" departSpeed="10" />
    <vehicle id="S1N1_22" type="car" route="S1N1" depart="253.0" departLane="random" departSpeed="10" />
    <vehicle id="S1N1_23" type="car" route="S1N1" depart="257.0" departLane="random" departSpeed="10" />
    <vehicle id="N1S1_24" type="car" route="N1S1" depart="268.0" departLane="random" departSpeed="10" />
    <vehicle id="N2S2_25" type="car" route="N2S2" depart="268.0" departLane="random" departSpeed="10" />
    <vehicle id="WS1_26" type="car" route="WS1" depart="270.0" departLane="random" departSpeed="10" />
    <vehicle id="WE27" type="car" route="WE" depart="272.0" departLane="random" departSpeed="10" />
    <vehicle id="EN2_28" type="car" route="EN2" depart="280.0" departLane="random" departSpeed="10" />
    <vehicle id="N1S2_29" type="car" route="N1S2" depart="286.0" departLane="random" departSpeed="10" />
    <vehicle id="S2E_30" type="car" route="S2E" depart="290.0" departLane="random" departSpeed="10" />
    <vehicle id="WN2_31" type="car" route="WN2" depart="294.0" departLane="random" departSpeed="10" />
    <vehicle id="S1N1_32" type="car" route="S1N1" depart="298.0" departLane="random" departSpeed="10" />
    <vehicle id="S1N1_33" type="car" route="S1N1" depart="298.0" departLane="random" departSpeed="10" />
    <vehicle id="WS1_34" type="car" route="WS1" depart="314.0" departLane="random" departSpeed="10" />
    <vehicle id="S1N1_35" type="car" route="S1N1" depart="317.0" departLane="random" departSpeed="10" />
    <vehicle id="ES1_36" type="car" route="ES1" depart="319.0" departLane="random" departSpeed="10" />
    <vehicle id="EW37" type="car" route="EW" depart="319.0" departLane="random" departSpeed="10" />
    <vehicle id="ES2_38" type="car" route="ES2" depart="326.0" departLane="random" departSpeed="10" />
    <vehicle id="N1N239" type="car" route="N1N2" depart="327.0" departLane="random" departSpeed="10" />
    <vehicle id="S2N2_40" type="car" route="S2N2" depart="330.0" departLane="random" departSpeed="10" />
    <vehicle id="S1W_41" type="car" route="S1W" depart="337.0" departLane="random" departSpeed="10" />
    <vehicle id="S1N1_42" type="car" route="S1N1" depart="337.0" departLane="random" departSpeed="10" />
    <vehicle id="S2N2_43" type="car" route="S2N2" depart="340.0" departLane="random" departSpeed="10" />
    <vehicle id="S2W_44" type="car" route="S2W" depart="343.0" departLane="random" departSpeed="10" />
    <vehicle id="S2N2_45" type="car" route="S2N2" depart="346.0" departLane="random" departSpeed="10" />
    <vehicle id="EW46" type="car" route="EW" depart="353.0" departLane="random" departSpeed="10" />
    <vehicle id="N1S2_47" type="car" route="N1S2" depart="357.0" departLane="random" departSpeed="10" />
    <vehicle id="N1S1_48" type="car" route="N1S1" depart="358.0" departLane="random" departSpeed="10" />
    <vehicle id="WN1_49" type="car" route="WN1" depart="364.0" departLane="random" departSpeed="10" />
    <vehicle id="S2N2_50" type="car" route="S2N2" depart="371.0" departLane="random" departSpeed="10" />
    <vehicle id="S2N2_51" type="car" route="S2N2" depart="372.0" departLane="random" departSpeed="10" />
    <vehicle id="N1S1_52" type="car" route="N1S1" depart="372.0" departLane="random" departSpeed="10" />
    <vehicle id="EW53" type="car" route="EW" depart="374.0" departLane="random" departSpeed="10" />
    <vehicle id="N1S1_54" type="car" route="N1S1" depart="376.0" departLane="random" departSpeed="10" />
    <vehicle id="N1E_55" type="car" route="N1E" depart="381.0" departLane="random" departSpeed="10" />
    <vehicle id="N2N1_56" type="car" route="N2N1" depart="382.0" departLane="random" departSpeed="10" />
    <vehicle id="WS1_57" type="car" route="WS1" depart="386.0" departLane="random" departSpeed="10" />
    <vehicle id="EN1_58" type="car" route="EN1" depart="389.0" departLane="random" departSpeed="10" />
    <vehicle id="N2E_59" type="car" route="N2E" depart="389.0" departLane="random" departSpeed="10" />
    <vehicle id="ES1_60" type="car" route="ES1" depart="389.0" departLane="random" departSpeed="10" />
    <vehicle id="WE61" type="car" route="WE" depart="393.0" departLane="random" departSpeed="10" />
    <vehicle id="N2E_62" type="car" route="N2E" depart="401.0" departLane="random" departSpeed="10" />
    <vehicle id="S2N2_63" type="car" route="S2N2" depart="401.0" departLane="random" departSpeed="10" />
    <vehicle id="S1N1_64" type="car" route="S1N1" depart="405.0" departLane="random" departSpeed="10" />
    <vehicle id="S1S2_65" type="car" route="S1S2" depart="411.0" departLane="random" departSpeed="10" />
    <vehicle id="S2N2_66" type="car" route="S2N2" depart="412.0" departLane="random" departSpeed="10" />
    <vehicle id="N2W_67" type="car" route="N2W" depart="413.0" departLane="random" departSpeed="10" />
    <vehicle id="S1W_68" type="car" route="S1W" depart="416.0" departLane="random" departSpeed="10" />
    <vehicle id="S2N2_69" type="car" route="S2N2" depart="422.0" departLane="random" departSpeed="10" />
    <vehicle id="EW70" type="car" route="EW" depart="423.0" departLane="random" departSpeed="10" />
    <vehicle id="S1E_71" type="car" route="S1E" depart="427.0" departLane="random" departSpeed="10" />
    <vehicle id="S2N1_72" type="car" route="S2N1" depart="427.0" departLane="random" departSpeed="10" />
    <vehicle id="S2N1_73" type="car" route="S2N1" depart="430.0" departLane="random" departSpeed="10" />
    <vehicle id="WS2_74" type="car" route="WS2" depart="436.0" departLane="random" departSpeed="10" />
    <vehicle id="N2S2_75" type="car" route="N2S2" depart="436.0" departLane="random" departSpeed="10" />
    <vehicle id="S2N2_76" type="car" route="S2N2" depart="437.0" departLane="random" departSpeed="10" />
    <vehicle id="ES2_77" type="car" route="ES2" depart="438.0" departLane="random" departSpeed="10" />
    <vehicle id="S2N2_78" type="car" route="S2N2" depart="448.0" departLane="random" departSpeed="10" />
    <vehicle id="WE79" type="car" route="WE" depart="449.0" departLane="random" departSpeed="10" />
    <vehicle id="N2S1_80" type="car" route="N2S1" depart="454.0" departLane="random" departSpeed="10" />
    <vehicle id="S2W_81" type="car" route="S2W" depart="459.0" departLane="random" departSpeed="10" />
    <vehicle id="WE82" type="car" route="WE" depart="462.0" departLane="random" departSpeed="10" />
    <vehicle id="N1N283" type="car" route="N1N2" depart="465.0" departLane="random" departSpeed="10" />
    <vehicle id="WS2_84" type="car" route="WS2" depart="467.0" departLane="random" departSpeed="10" />
    <vehicle id="N1S2_85" type="car" route="N1S2" depart="467.0" departLane="random" departSpeed="10" />
    <vehicle id="N2E_86" type="car" route="N2E" depart="468.0" departLane="random" departSpeed="10" />
    <vehicle id="S2S1_87" type="car" route="S2S1" depart="468.0" departLane="random" departSpeed="10" />
    <vehicle id="S2N1_88" type="car" route="S2N1" depart="469.0" departLane="random" departSpeed="10" />
    <vehicle id="WN1_89" type="car" route="WN1" depart="470.0" departLane="random" departSpeed="10" />
    <vehicle id="N1S1_90" type="car" route="N1S1" depart="471.0" departLane="random" departSpeed="10" />
    <vehicle id="S2N2_91" type="car" route="S2N2" depart="477.0" departLane="random" departSpeed="10" />
    <vehicle id="N2N1_92" type="car" route="N2N1" depart="483.0" departLane="random" departSpeed="10" />
    <vehicle id="N1N293" type="car" route="N1N2" depart="484.0" departLane="random" departSpeed="10" />
    <vehicle id="WN1_94" type="car" route="WN1" depart="484.0" departLane="random" departSpeed="10" />
    <vehicle id="S1W_95" type="car" route="S1W" depart="485.0" departLane="random" departSpeed="10" />
    <vehicle id="S1N1_96" type="car" route="S1N1" depart="488.0" departLane="random" departSpeed="10" />
    <vehicle id="N1S1_97" type="car" route="N1S1" depart="488.0" departLane="random" departSpeed="10" />
    <vehicle id="N1S1_98" type="car" route="N1S1" depart="493.0" departLane="random" departSpeed="10" />
    <vehicle id="S1N1_99" type="car" route="S1N1" depart="497.0" departLane="random" departSpeed="10" />
    <vehicle id="EW100" type="car" route="EW" depart="500.0" departLane="random" departSpeed="10" />
    <vehicle id="N1N2101" type="car" route="N1N2" depart="501.0" departLane="random" departSpeed="10" />
    <vehicle id="N1S1_102" type="car" route="N1S1" depart="504.0" departLane="random" departSpeed="10" />
    <vehicle id="N1W_103" type="car" route="N1W" depart="507.0" departLane="random" departSpeed="10" />
    <vehicle id="N2S2_104" type="car" route="N2S2" depart="510.0" departLane="random" departSpeed="10" />
    <vehicle id="N2S2_105" type="car" route="N2S2" depart="518.0" departLane="random" departSpeed="10" />
    <vehicle id="S2N2_106" type="car" route="S2N2" depart="519.0" departLane="random" departSpeed="10" />
    <vehicle id="S2N2_107" type="car" route="S2N2" depart="519.0" departLane="random" departSpeed="10" />
    <vehicle id="EW108" type="car" route="EW" depart="520.0" departLane="random" departSpeed="10" />
    <vehicle id="EN2_109" type="car" route="EN2" depart="520.0" departLane="random" departSpeed="10" />
    <vehicle id="N1W_110" type="car" route="N1W" depart="523.0" departLane="random" departSpeed="10" />
    <vehicle id="EW111" type="car" route="EW" depart="525.0" departLane="random" departSpeed="10" />
    <vehicle id="EN1_112" type="car" route="EN1" depart="526.0" departLane="random" departSpeed="10" />
    <vehicle id="S1N1_113" type="car" route="S1N1" depart="528.0" departLane="random" departSpeed="10" />
    <vehicle id="WE114" type="car" route="WE" depart="529.0" departLane="random" departSpeed="10" />
    <vehicle id="S1E_115" type="car" route="S1E" depart="534.0" departLane="random" departSpeed="10" />
    <vehicle id="WS1_116" type="car" route="WS1" depart="541.0" departLane="random" departSpeed="10" />
    <vehicle id="N1S1_117" type="car" route="N1S1" depart="541.0" departLane="random" departSpeed="10" />
    <vehicle id="N2S2_118" type="car" route="N2S2" depart="547.0" departLane="random" departSpeed="10" />
    <vehicle id="N1S2_119" type="car" route="N1S2" depart="548.0" departLane="random" departSpeed="10" />
    <vehicle id="N2W_120" type="car" route="N2W" depart="549.0" departLane="random" departSpeed="10" />
    <vehicle id="ES2_121" type="car" route="ES2" depart="549.0" departLane="random" departSpeed="10" />
    <vehicle id="S2N2_122" type="car" route="S2N2" depart="550.0" departLane="random" departSpeed="10" />
    <vehicle id="S2N2_123" type="car" route="S2N2" depart="550.0" departLane="random" departSpeed="10" />
    <vehicle id="WE124" type="car" route="WE" depart="551.0" departLane="random" departSpeed="10" />
    <vehicle id="N1S1_125" type="car" route="N1S1" depart="552.0" departLane="random" departSpeed="10" />
    <vehicle id="EN2_126" type="car" route="EN2" depart="555.0" departLane="random" departSpeed="10" />
    <vehicle id="N2E_127" type="car" route="N2E" depart="555.0" departLane="random" departSpeed="10" />
    <vehicle id="S2N1_128" type="car" route="S2N1" depart="561.0" departLane="random" departSpeed="10" />
    <vehicle id="N2W_129" type="car" route="N2W" depart="563.0" departLane="random" departSpeed="10" />
    <vehicle id="N1S1_130" type="car" route="N1S1" depart="564.0" departLane="random" departSpeed="10" />
    <vehicle id="S1S2_131" type="car" route="S1S2" depart="567.0" departLane="random" departSpeed="10" />
    <vehicle id="EN2_132" type="car" route="EN2" depart="568.0" departLane="random" departSpeed="10" />
    <vehicle id="N1S1_133" type="car" route="N1S1" depart="569.0" departLane="random" departSpeed="10" />
    <vehicle id="N1S1_134" type="car" route="N1S1" depart="572.0" departLane="random" departSpeed="10" />
    <vehicle id="S1S2_135" type="car" route="S1S2" depart="577.0" departLane="random" departSpeed="10" />
    <vehicle id="WS2_136" type="car" route="WS2" depart="578.0" departLane="random" departSpeed="10" />
    <vehicle id="S1N2_137" type="car" route="S1N2" depart="584.0" departLane="random" departSpeed="10" />
    <vehicle id="S2N2_138" type="car" route="S2N2" depart="586.0" departLane="random" departSpeed="10" />
    <vehicle id="EN2_139" type="car" route="EN2" depart="587.0" departLane="random" departSpeed="10" />
    <vehicle id="WE140" type="car" route="WE" depart="588.0" departLane="random" departSpeed="10" />
    <vehicle id="N1W_141" type="car" route="N1W" depart="589.0" departLane="random" departSpeed="10" />
    <vehicle id="WN2_142" type="car" route="WN2" depart="593.0" departLane="random" departSpeed="10" />
    <vehicle id="N2S2_143" type="car" route="N2S2" depart="596.0" departLane="random" departSpeed="10" />
    <vehicle id="EN1_144" type="car" route="EN1" depart="597.0" departLane="random" departSpeed="10" />
    <vehicle id="N1E_145" type="car" route="N1E" depart="598.0" departLane="random" departSpeed="10" />
    <vehicle id="S2W_146" type="car" route="S2W" depart="598.0" departLane="random" departSpeed="10" />
    <vehicle id="N1W_147" type="car" route="N1W" depart="604.0" departLane="random" departSpeed="10" />
    <vehicle id="WS1_148" type="car" route="WS1" depart="606.0" departLane="random" departSpeed="10" />
    <vehicle id="S1N1_149" type="car" route="S1N1" depart="606.0" departLane="random" departSpeed="10" />
    <vehicle id="N2S1_150" type="car" route="N2S1" depart="613.0" departLane="random" departSpeed="10" />
    <vehicle id="ES1_151" type="car" route="ES1" depart="614.0" departLane="random" departSpeed="10" />
    <vehicle id="WE152" type="car" route="WE" depart="614.0" departLane="random" departSpeed="10" />
    <vehicle id="ES1_153" type="car" route="ES1" depart="615.0" departLane="random" departSpeed="10" />
    <vehicle id="N1E_154" type="car" route="N1E" depart="620.0" departLane="random" departSpeed="10" />
    <vehicle id="N1S1_155" type="car" route="N1S1" depart="620.0" departLane="random" departSpeed="10" />
    <vehicle id="WS2_156" type="car" route="WS2" depart="623.0" departLane="random" departSpeed="10" />
    <vehicle id="N2S1_157" type="car" route="N2S1" depart="632.0" departLane="random" departSpeed="10" />
    <vehicle id="N1S1_158" type="car" route="N1S1" depart="634.0" departLane="random" departSpeed="10" />
    <vehicle id="S1N1_159" type="car" route="S1N1" depart="635.0" departLane="random" departSpeed="10" />
    <vehicle id="S1N1_160" type="car" route="S1N1" depart="635.0" departLane="random" departSpeed="10" />
    <vehicle id="S2S1_161" type="car" route="S2S1" depart="635.0" departLane="random" departSpeed="10" />
    <vehicle id="N1S2_162" type="car" route="N1S2" depart="639.0" departLane="random" departSpeed="10" />
    <vehicle id="S2N2_163" type="car" route="S2N2" depart="642.0" departLane="random" departSpeed="10" />
    <vehicle id="S1N1_164" type="car" route="S1N1" depart="643.0" departLane="random" departSpeed="10" />
    <vehicle id="WS1_165" type="car" route="WS1" depart="645.0" departLane="random" departSpeed="10" />
    <vehicle id="N2S1_166" type="car" route="N2S1" depart="647.0" departLane="random" departSpeed="10" />
    <vehicle id="S2W_167" type="car" route="S2W" depart="647.0" departLane="random" departSpeed="10" />
    <vehicle id="S1N1_168" type="car" route="S1N1" depart="648.0" departLane="random" departSpeed="10" />
    <vehicle id="EN1_169" type="car" route="EN1" depart="651.0" departLane="random" departSpeed="10" />
    <vehicle id="ES1_170" type="car" route="ES1" depart="652.0" departLane="random" departSpeed="10" />
    <vehicle id="S2S1_171" type="car" route="S2S1" depart="662.0" departLane="random" departSpeed="10" />
    <vehicle id="N1S1_172" type="car" route="N1S1" depart="664.0" departLane="random" departSpeed="10" />
    <vehicle id="S2E_173" type="car" route="S2E" depart="668.0" departLane="random" departSpeed="10" />
    <vehicle id="EW174" type="car" route="EW" depart="669.0" departLane="random" departSpeed="10" />
    <vehicle id="N1S1_175" type="car" route="N1S1" depart="669.0" departLane="random" departSpeed="10" />
    <vehicle id="WE176" type="car" route="WE" depart="670.0" departLane="random" departSpeed="10" />
    <vehicle id="EN1_177" type="car" route="EN1" depart="672.0" departLane="random" departSpeed="10" />
    <vehicle id="N2E_178" type="car" route="N2E" depart="674.0" departLane="random" departSpeed="10" />
    <vehicle id="EW179" type="car" route="EW" depart="677.0" departLane="random" departSpeed="10" />
    <vehicle id="N1E_180" type="car" route="N1E" depart="679.0" departLane="random" departSpeed="10" />
    <vehicle id="EN2_181" type="car" route="EN2" depart="680.0" departLane="random" departSpeed="10" />
    <vehicle id="EN2_182" type="car" route="EN2" depart="680.0" departLane="random" departSpeed="10" />
    <vehicle id="EN1_183" type="car" route="EN1" depart="686.0" departLane="random" departSpeed="10" />
    <vehicle id="N2S1_184" type="car" route="N2S1" depart="689.0" departLane="random" departSpeed="10" />
    <vehicle id="N2S2_185" type="car" route="N2S2" depart="692.0" departLane="random" departSpeed="10" />
    <vehicle id="EW186" type="car" route="EW" depart="695.0" departLane="random" departSpeed="10" />
    <vehicle id="S2N2_187" type="car" route="S2N2" depart="696.0" departLane="random" departSpeed="10" />
    <vehicle id="S2N1_188" type="car" route="S2N1" depart="698.0" departLane="random" departSpeed="10" />
    <vehicle id="N1S1_189" type="car" route="N1S1" depart="699.0" departLane="random" departSpeed="10" />
    <vehicle id="S2N2_190" type="car" route="S2N2" depart="700.0" departLane="random" departSpeed="10" />
    <vehicle id="EW191" type="car" route="EW" depart="704.0" departLane="random" departSpeed="10" />
    <vehicle id="S1E_192" type="car" route="S1E" depart="704.0" departLane="random" departSpeed="10" />
    <vehicle id="S2E_193" type="car" route="S2E" depart="706.0" departLane="random" departSpeed="10" />
    <vehicle id="EW194" type="car" route="EW" depart="706.0" departLane="random" departSpeed="10" />
    <vehicle id="WN1_195" type="car" route="WN1" depart="710.0" departLane="random" departSpeed="10" />
    <vehicle id="ES2_196" type="car" route="ES2" depart="715.0" departLane="random" departSpeed="10" />
    <vehicle id="N2S2_197" type="car" route="N2S2" depart="724.0" departLane="random" departSpeed="10" />
    <vehicle id="S1N1_198" type="car" route="S1N1" depart="724.0" departLane="random" departSpeed="10" />
    <vehicle id="EW199" type="car" route="EW" depart="729.0" departLane="random" departSpeed="10" />
    <vehicle id="S1N2_200" type="car" route="S1N2" depart="729.0" departLane="random" departSpeed="10" />
    <vehicle id="N1S2_201" type="car" route="N1S2" depart="730.0" departLane="random" departSpeed="10" />
    <vehicle id="EN2_202" type="car" route="EN2" depart="731.0" departLane="random" departSpeed="10" />
    <vehicle id="N1S1_203" type="car" route="N1S1" depart="739.0" departLane="random" departSpeed="10" />
    <vehicle id="S2N2_204" type="car" route="S2N2" depart="740.0" departLane="random" departSpeed="10" />
    <vehicle id="S2N2_205" type="car" route="S2N2" depart="743.0" departLane="random" departSpeed="10" />
    <vehicle id="N2E_206" type="car" route="N2E" depart="744.0" departLane="random" departSpeed="10" />
    <vehicle id="S2N1_207" type="car" route="S2N1" depart="744.0" departLane="random" departSpeed="10" />
    <vehicle id="S1N1_208" type="car" route="S1N1" depart="750.0" departLane="random" departSpeed="10" />
    <vehicle id="S2N2_209" type="car" route="S2N2" depart="754.0" departLane="random" departSpeed="10" />
    <vehicle id="WN2_210" type="car" route="WN2" depart="755.0" departLane="random" departSpeed="10" />
    <vehicle id="N2S1_211" type="car" route="N2S1" depart="755.0" departLane="random" departSpeed="10" />
    <vehicle id="EW212" type="car" route="EW" depart="757.0" departLane="random" departSpeed="10" />
    <vehicle id="WE213" type="car" route="WE" depart="760.0" departLane="random" departSpeed="10" />
    <vehicle id="N1S1_214" type="car" route="N1S1" depart="761.0" departLane="random" departSpeed="10" />
    <vehicle id="EW215" type="car" route="EW" depart="766.0" departLane="random" departSpeed="10" />
    <vehicle id="WS2_216" type="car" route="WS2" depart="769.0" departLane="random" departSpeed="10" />
    <vehicle id="EW217" type="car" route="EW" depart="769.0" departLane="random" departSpeed="10" />
    <vehicle id="S2N2_218" type="car" route="S2N2" depart="771.0" departLane="random" departSpeed="10" />
    <vehicle id="N1W_219" type="car" route="N1W" depart="772.0" departLane="random" departSpeed="10" />
    <vehicle id="EW220" type="car" route="EW" depart="774.0" departLane="random" departSpeed="10" />
    <vehicle id="S1E_221" type="car" route="S1E" depart="774.0" departLane="random" departSpeed="10" />
    <vehicle id="N2S2_222" type="car" route="N2S2" depart="774.0" departLane="random" departSpeed="10" />
    <vehicle id="N2S2_223" type="car" route="N2S2" depart="776.0" departLane="random" departSpeed="10" />
    <vehicle id="S1N2_224" type="car" route="S1N2" depart="778.0" departLane="random" departSpeed="10" />
    <vehicle id="S2N2_225" type="car" route="S2N2" depart="780.0" departLane="random" departSpeed="10" />
    <vehicle id="N1S1_226" type="car" route="N1S1" depart="781.0" departLane="random" departSpeed="10" />
    <vehicle id="S2N2_227" type="car" route="S2N2" depart="782.0" departLane="random" departSpeed="10" />
    <vehicle id="WS1_228" type="car" route="WS1" depart="783.0" departLane="random" departSpeed="10" />
    <vehicle id="EW229" type="car" route="EW" depart="784.0" departLane="random" departSpeed="10" />
    <vehicle id="N1N2230" type="car" route="N1N2" depart="793.0" departLane="random" departSpeed="10" />
    <vehicle id="WN1_231" type="car" route="WN1" depart="794.0" departLane="random" departSpeed="10" />
    <vehicle id="S2W_232" type="car" route="S2W" depart="801.0" departLane="random" departSpeed="10" />
    <vehicle id="N2E_233" type="car" route="N2E" depart="803.0" departLane="random" departSpeed="10" />
    <vehicle id="WN2_234" type="car" route="WN2" depart="804.0" departLane="random" departSpeed="10" />
    <vehicle id="N2E_235" type="car" route="N2E" depart="806.0" departLane="random" departSpeed="10" />
    <vehicle id="S1N1_236" type="car" route="S1N1" depart="810.0" departLane="random" departSpeed="10" />
    <vehicle id="N2W_237" type="car" route="N2W" depart="813.0" departLane="random" departSpeed="10" />
    <vehicle id="S2N2_238" type="car" route="S2N2" depart="814.0" departLane="random" departSpeed="10" />
    <vehicle id="WE239" type="car" route="WE" depart="816.0" departLane="random" departSpeed="10" />
    <vehicle id="N1S1_240" type="car" route="N1S1" depart="820.0" departLane="random" departSpeed="10" />
    <vehicle id="S1N1_241" type="car" route="S1N1" depart="821.0" departLane="random" departSpeed="10" />
    <vehicle id="S2N2_242" type="car" route="S2N2" depart="824.0" departLane="random" departSpeed="10" />
    <vehicle id="N2S2_243" type="car" route="N2S2" depart="824.0" departLane="random" departSpeed="10" />
    <vehicle id="EN2_244" type="car" route="EN2" depart="828.0" departLane="random" departSpeed="10" />
    <vehicle id="N1W_245" type="car" route="N1W" depart="831.0" departLane="random" departSpeed="10" />
    <vehicle id="N2S2_246" type="car" route="N2S2" depart="832.0" departLane="random" departSpeed="10" />
    <vehicle id="S2N1_247" type="car" route="S2N1" depart="835.0" departLane="random" departSpeed="10" />
    <vehicle id="EW248" type="car" route="EW" depart="838.0" departLane="random" departSpeed="10" />
    <vehicle id="EW249" type="car" route="EW" depart="839.0" departLane="random" departSpeed="10" />
    <vehicle id="WE250" type="car" route="WE" depart="840.0" departLane="random" departSpeed="10" />
    <vehicle id="N1S1_251" type="car" route="N1S1" depart="843.0" departLane="random" departSpeed="10" />
    <vehicle id="N1S1_252" type="car" route="N1S1" depart="847.0" departLane="random" departSpeed="10" />
    <vehicle id="EN2_253" type="car" route="EN2" depart="848.0" departLane="random" departSpeed="10" />
    <vehicle id="N1S1_254" type="car" route="N1S1" depart="850.0" departLane="random" departSpeed="10" />
    <vehicle id="EW255" type="car" route="EW" depart="850.0" departLane="random" departSpeed="10" />
    <vehicle id="S2N2_256" type="car" route="S2N2" depart="851.0" departLane="random" departSpeed="10" />
    <vehicle id="N1E_257" type="car" route="N1E" depart="857.0" departLane="random" departSpeed="10" />
    <vehicle id="WE258" type="car" route="WE" depart="859.0" departLane="random" departSpeed="10" />
    <vehicle id="S1N1_259" type="car" route="S1N1" depart="859.0" departLane="random" departSpeed="10" />
    <vehicle id="S1E_260" type="car" route="S1E" depart="862.0" departLane="random" departSpeed="10" />
    <vehicle id="N2S2_261" type="car" route="N2S2" depart="862.0" departLane="random" departSpeed="10" />
    <vehicle id="WE262" type="car" route="WE" depart="865.0" departLane="random" departSpeed="10" />
    <vehicle id="EW263" type="car" route="EW" depart="867.0" departLane="random" departSpeed="10" />
    <vehicle id="WE264" type="car" route="WE" depart="869.0" departLane="random" departSpeed="10" />
    <vehicle id="N2S1_265" type="car" route="N2S1" depart="873.0" departLane="random" departSpeed="10" />
    <vehicle id="N1E_266" type="car" route="N1E" depart="877.0" departLane="random" departSpeed="10" />
    <vehicle id="S2W_267" type="car" route="S2W" depart="877.0" departLane="random" departSpeed="10" />
    <vehicle id="S2N1_268" type="car" route="S2N1" depart="877.0" departLane="random" departSpeed="10" />
    <vehicle id="WS2_269" type="car" route="WS2" depart="877.0" departLane="random" departSpeed="10" />
    <vehicle id="S1N1_270" type="car" route="S1N1" depart="878.0" departLane="random" departSpeed="10" />